LAMMPS (18 Sep 2018)
# Reference: M. Orsi, Comparative assessment of the ELBA coarse-grained
# model for water, Molecular Physics (2014), 112, 1566-1576

## ==================== initialization ====================

units real
dimension 3
boundary p p p
atom_style full

## ==================== atom definition ===================
read_data data.singleSPC
  orthogonal box = (0 0 0) to (3.1 3.1 3.1)
  reading atoms ...
  3 atoms
  scanning bonds ...
  scanning angles ...
  reading bonds ...
  2 bonds
  reading angles ...
  1 angles
replicate 10 10 10
  orthogonal box = (0 0 0) to (31 31 31)
  3000 atoms
  2000 bonds
  1000 angles
  Time spent = 0.00092721 secs
group hydrogen type 1
2000 atoms in group hydrogen
group oxygen type 2
1000 atoms in group oxygen

## ====================== force field =====================
include forcefield.SPC
# Berendsen et al, in "Intermolecular forces", p. 331 (1981)
# Charges and geometry are specified in the "data." file.

mass 1 1.00794 # H
mass 2 15.9994 # O

pair_style lj/cut/coul/long 10.0
pair_modify tail yes
kspace_style pppm 1.0e-5

pair_coeff 1 1 0.00000 0.000
pair_coeff 1 2 0.00000 0.000
pair_coeff 2 2 0.15535 3.166

bond_style harmonic
bond_coeff 1 0.0 1.0

angle_style harmonic
angle_coeff 1 0.0 109.47

## ======================= variables ======================

variable T_room equal 298.0       # room temperature
variable P_room equal 1.0         # room pressure
variable T_nitrogen equal 77.0      # boiling point of liquid nitrogen
variable T_max equal 136.15       # max temperature that wate maintains vitrified

variable N_room equal 1000        # num of steps for room temperature equlibrium
variable N_vitrify equal 1000     # num of steps for vitrifying (cooling down)
variable N_relexation equal 1000  # num of steps for stablization at low temperature

variable N_freq equal 100         # every N_freq steps the fix ave/time is functioned
variable N_every equal 10         # in the N_freq steps, every other 10 points are picked up
variable N_repeat equal 100/10
variable N_dump equal 100

variable watMoleMass equal 18.0153 # /(g/mol)
variable nAvog equal 6.0221415e23  # Avogadro's number
variable watMoleculeMass equal (18.0153/6.0221415e+23)
variable A3_in_cm3 equal 1e-24     # Angstrom^3 in cm^3
variable nAtoms equal atoms
variable nMolecules equal v_nAtoms/3

## ================== simulation settings ==================

velocity all create 298 1234
neighbor 2.0 bin
neigh_modify every 1 delay 0 check yes
timestep 5.0

# basic fixes
fix constrain all shake 1.0e-4 100 0 b 1 a 1      # bond and angle constraints
fix removeMomentum all momentum 100 linear 1 1 1  # zero linear momentum of the whole system every 100 steps

compute T all temp
fix TempAve all ave/time 10 10 100 c_T file wat.temp

compute P all pressure T
fix PressAve all ave/time 10 10 100 c_P file wat.pres

compute PE all pe pair kspace
variable PE_Mol equal c_PE/v_nMolecules
fix PEAve_Mol all ave/time 10 10 100 v_PE_Mol file wat.pe

variable Dens equal v_nMolecules*2.99151057808921e-23/(vol*1e-24)
fix DensAve all ave/time 10 10 100 v_Dens file wat.dens

## output settings

thermo_style custom step f_TempAve f_PressAve
thermo_modify flush yes
thermo 100

dump trj all atom 100 wat.lammpstrj
dump img all image 100 wat.*.jpg type type

## ==================== main simulation ====================

# initial stablization at room temperature
fix room all npt temp 298 298 100.0 iso 1 1 1000.0
run 1000
PPPM initialization ...
  G vector (1/distance) = 0.3051
  grid = 27 27 27
  stencil order = 5
  estimated absolute RMS force accuracy = 0.00286859
  estimated relative force accuracy = 8.63868e-06
  3d grid and FFT values/proc = 39304 19683
  update every 1 steps, delay 0 steps, check yes
Step f_TempAve f_PressAve
0            0            0
Averages over the last 6 of 11 rows, steps 500 to 1000:
f_TempAve f_PressAve
297.19 61.5563
Loop time of 31.3843 on 8 procs for 1000 steps with 3000 atoms

unfix room

# fast cooling down to liquid nitrogen temperature
fix nitrogen all npt temp 298 77 100.0 iso 1 1 1000.0
run 1000
PPPM initialization ...
  G vector (1/distance) = 0.305124
  grid = 27 27 27
  stencil order = 5
  estimated absolute RMS force accuracy = 0.00286585
  estimated relative force accuracy = 8.63042e-06
  3d grid and FFT values/proc = 39304 19683
Step f_TempAve f_PressAve
1000    298.46215    233.29386
Averages over the last 6 of 11 rows, steps 1500 to 2000:
f_TempAve f_PressAve
148.493 2.88507
Loop time of 30.0535 on 8 procs for 1000 steps with 3000 atoms

unfix nitrogen

# final relexation in vaccum
fix undergo all npt temp 77 77 100.0 iso 0.5 0.5 1000
run 1000
PPPM initialization ...
  G vector (1/distance) = 0.300791
  grid = 25 25 25
  stencil order = 5
  estimated absolute RMS force accuracy = 0.00383385
  estimated relative force accuracy = 1.15455e-05
  3d grid and FFT values/proc = 32768 15625
Step f_TempAve f_PressAve
2000    92.769822     173.4775
Averages over the last 6 of 11 rows, steps 2500 to 3000:
f_TempAve f_PressAve
77.0416 4.85651
Loop time of 29.0337 on 8 procs for 1000 steps with 3000 atoms

unfix undergo

#write_restart restart.wat
